@<TRIPOS>MOLECULE
JZ4
 22 22 0 0 0
SMALL
GASTEIGER

@<TRIPOS>ATOM
      1 C           3.7430   -0.3010    0.2410 C.3     1  LIG1       -0.0650
      2 C          -2.0920   -1.4580    0.0900 C.ar    1  LIG1       -0.0613
      3 C          -2.7340   -0.2550    0.3170 C.ar    1  LIG1       -0.0583
      4 C          -2.0340    0.9320    0.2230 C.ar    1  LIG1       -0.0199
      5 C          -0.6860    0.9160   -0.1020 C.ar    1  LIG1        0.1200
      6 C          -0.7480   -1.4770   -0.2340 C.ar    1  LIG1       -0.0551
      7 C          -0.0430   -0.2930   -0.3300 C.ar    1  LIG1       -0.0060
      8 C           1.4220   -0.3130   -0.6830 C.3     1  LIG1       -0.0245
      9 C           2.2560   -0.2800    0.5990 C.3     1  LIG1       -0.0518
     10 O           0.0050    2.0820   -0.1960 O.3     1  LIG1       -0.5065
     11 H           4.3370   -0.2780    1.1550 H       1  LIG1        0.0230
     12 H           3.9700   -1.2100   -0.3170 H       1  LIG1        0.0230
     13 H           3.9820    0.5690   -0.3700 H       1  LIG1        0.0230
     14 H          -2.6410   -2.3850    0.1690 H       1  LIG1        0.0618
     15 H          -3.7850   -0.2440    0.5700 H       1  LIG1        0.0619
     16 H          -2.5360    1.8710    0.4000 H       1  LIG1        0.0654
     17 H          -0.2490   -2.4180   -0.4110 H       1  LIG1        0.0621
     18 H           1.6480   -1.2220   -1.2400 H       1  LIG1        0.0314
     19 H           1.6600    0.5570   -1.2940 H       1  LIG1        0.0314
     20 H           2.0170   -1.1510    1.2110 H       1  LIG1        0.0266
     21 H           2.0290    0.6290    1.1570 H       1  LIG1        0.0266
     22 H           0.4110    2.3680    0.6340 H       1  LIG1        0.2921
@<TRIPOS>BOND
     1     1     9    1
     2     2     3   ar
     3     2     6   ar
     4     3     4   ar
     5     4     5   ar
     6     5     7   ar
     7     5    10    1
     8     6     7   ar
     9     7     8    1
    10     8     9    1
    11     1    11    1
    12     1    12    1
    13     1    13    1
    14     2    14    1
    15     3    15    1
    16     4    16    1
    17     6    17    1
    18     8    18    1
    19     8    19    1
    20     9    20    1
    21     9    21    1
    22    10    22    1
